! -------------------------------------------------------------------- !
! WAVEWATCH III ww3_ounf.nml - Grid output post-processing (forecast)  !
! -------------------------------------------------------------------- !

&FIELD_NML
  FIELD%TIMESTART        = 'YMDHMS_START'
  FIELD%TIMESTRIDE       = '1'
  FIELD%TIMECOUNT        = '1000000000'
  FIELD%TIMESPLIT        = 0
  FIELD%LIST             = 'HS FP DIR DP DPT WND CUR WLV UBR T0M1'
/

&FILE_NML
/

! -------------------------------------------------------------------- !
! WAVEWATCH III - end of namelist                                      !
! -------------------------------------------------------------------- !
